Version 4
SHEET 1 880 680
WIRE 144 80 144 64
WIRE 224 96 224 48
WIRE -144 144 -144 80
WIRE 144 176 144 80
WIRE 384 192 304 192
WIRE 224 336 224 288
FLAG 224 336 0
FLAG -144 224 0
FLAG -144 80 VCC
FLAG 224 48 VCC
FLAG 144 224 0
FLAG 144 80 VCC
FLAG 384 288 0
SYMBOL AutoGenerated\\LM358 208 192 R0
SYMATTR InstName U1
SYMBOL voltage -144 128 R0
WINDOW 123 0 0 Left 0
WINDOW 39 0 0 Left 0
SYMATTR InstName V2
SYMATTR Value 30
TEXT -176 360 Left 2 !.tran 0 1 0 0.1
TEXT 312 352 Left 2 !.include LM358.txt
